LAMMPS (23 Jun 2022)
# 3d metal relaxaction testing parameters

#variable u loop 2 9
#label myloop

# initilizing EAM and boundry conditions

units		metal
boundary	p p p

#loop
variable u loop 2 9
label myloop

# reading data file containing the configuration

read_data Al_alloy.lmpdat
Reading data file ...
  orthogonal box = (0 0 0) to (16.184 16.184 16.184)
  reading atoms ...
  256 atoms

# defining potentials and other parameters

pair_style	eam/alloy
pair_coeff	* * Al.eam Al

# Delta t
variable t equal 0.0005*$u
variable t equal 0.0005*2
timestep $t
timestep 0.001

variable b equal 0.3*$u
variable b equal 0.3*2
neighbor	$b bin
neighbor	0.6 bin
neigh_modify	delay 5

# dumping configurations at timesteps
dump mydump all custom 2000000 confdump.$u.*.data id type x y z vx vy vz
dump mydump all custom 2000000 confdump.2.*.data id type x y z vx vy vz
dump_modify mydump sort id
# set numerical integrator
## NVE; default is velocity Verlet
fix 1 all nvt temp 300.0 300.0 $(100.0*dt)
fix 1 all nvt temp 300.0 300.0 0.10000000000000000555
thermo 10000

run 100000000
  update every 1 steps, delay 5 steps, check yes
Step          Temp          E_pair         E_mol          TotEng         Press
0   0             -860.15079      0             -860.15079      2342.81
Averages over the last 5001 of 10001 rows, steps 50000000 to 100000000:
Temp E_pair E_mol TotEng Press
300.518 -860.065 0 -850.159 4879.21
Loop time of 6954.99 on 4 procs for 100000000 steps with 256 atoms

next u
jump SELF myloop

# reading data file containing the configuration

read_data Al_alloy.lmpdat
ERROR: Cannot read_data without add keyword after simulation box is defined (src/read_data.cpp:316)
Last command: read_data Al_alloy.lmpdat
