LAMMPS (23 Jun 2022)
# 3d metal relaxaction testing parameters

#variable u loop 2 9
#label myloop

# initilizing EAM and boundry conditions

units		metal
boundary	p p p

#loop
#variable u loop 2 9
#label myloop

# reading data file containing the configuration

read_data Al_alloy.lmpdat
Reading data file ...
  orthogonal box = (0 0 0) to (16.184 16.184 16.184)
  reading atoms ...
  256 atoms

# defining potentials and other parameters

pair_style	eam/alloy
pair_coeff	* * Al.eam Al

#loop
variable u loop 4 9
label myloop

# Delta t
variable t equal 0.0005*$u
variable t equal 0.0005*4
timestep $t
timestep 0.002

variable b equal 0.3*$u
variable b equal 0.3*4
neighbor	$b bin
neighbor	1.2 bin
neigh_modify	delay 5

# dumping configurations at timesteps
dump mydump.$u all custom 2000000 confdump.$u.*.data id type x y z vx vy vz
dump mydump.4 all custom 2000000 confdump.$u.*.data id type x y z vx vy vz
dump mydump.4 all custom 2000000 confdump.4.*.data id type x y z vx vy vz
dump_modify mydump.$u sort id
dump_modify mydump.4 sort id
# set numerical integrator
## NVE; default is velocity Verlet
fix 1 all nvt temp 300.0 300.0 $(100.0*dt)
fix 1 all nvt temp 300.0 300.0 0.2000000000000000111
thermo 10000

run 100000000
  update every 1 steps, delay 5 steps, check yes
Step          Temp          E_pair         E_mol          TotEng         Press
0   0             -860.15079      0             -860.15079      2342.81
Averages over the last 5001 of 10001 rows, steps 50000000 to 100000000:
Temp E_pair E_mol TotEng Press
300.256 -860.151 0 -850.254 4836.59
Loop time of 7323.31 on 4 procs for 100000000 steps with 256 atoms

next u
jump SELF myloop

# Delta t
variable t equal 0.0005*$u
variable t equal 0.0005*5
timestep $t
timestep 0.0025

variable b equal 0.3*$u
variable b equal 0.3*5
neighbor	$b bin
neighbor	1.5 bin
neigh_modify	delay 5

# dumping configurations at timesteps
dump mydump.$u all custom 2000000 confdump.$u.*.data id type x y z vx vy vz
dump mydump.5 all custom 2000000 confdump.$u.*.data id type x y z vx vy vz
dump mydump.5 all custom 2000000 confdump.5.*.data id type x y z vx vy vz
dump_modify mydump.$u sort id
dump_modify mydump.5 sort id
# set numerical integrator
## NVE; default is velocity Verlet
fix 1 all nvt temp 300.0 300.0 $(100.0*dt)
fix 1 all nvt temp 300.0 300.0 0.25
thermo 10000

run 100000000
Step          Temp          E_pair         E_mol          TotEng         Press
100000000   290.22621     -860.15079      0             -850.58455      4753.2867
Averages over the last 5001 of 10001 rows, steps 150000000 to 200000000:
Temp E_pair E_mol TotEng Press
299.754 -860.151 0 -850.27 4832.42
Loop time of 10929.8 on 4 procs for 100000000 steps with 256 atoms

next u
jump SELF myloop

# Delta t
variable t equal 0.0005*$u
variable t equal 0.0005*6
timestep $t
timestep 0.003

variable b equal 0.3*$u
variable b equal 0.3*6
neighbor	$b bin
neighbor	1.8 bin
neigh_modify	delay 5

# dumping configurations at timesteps
dump mydump.$u all custom 2000000 confdump.$u.*.data id type x y z vx vy vz
dump mydump.6 all custom 2000000 confdump.$u.*.data id type x y z vx vy vz
dump mydump.6 all custom 2000000 confdump.6.*.data id type x y z vx vy vz
dump_modify mydump.$u sort id
dump_modify mydump.6 sort id
# set numerical integrator
## NVE; default is velocity Verlet
fix 1 all nvt temp 300.0 300.0 $(100.0*dt)
fix 1 all nvt temp 300.0 300.0 0.2999999999999999889
thermo 10000

run 100000000
Step          Temp          E_pair         E_mol          TotEng         Press
200000000   306.70788     -860.15079      0             -850.04129      4890.1754
Averages over the last 560 of 1119 rows, steps 205590000 to 211180000:
Temp E_pair E_mol TotEng Press
299.193 -860.151 0 -850.289 4827.76
